{% include 'comment.cir.j2' %}
.SUBCKT {{ subckt_name }}{% for terminal in terminals %} {{ terminal }}{% endfor %}{% for key, value in parameters.items() %} {{ key }}={{ value }}{% endfor %}

{% for subckt in sub_circuits %}
{{ subckt.get_ngspice(connections) }}
{% endfor %}
.ENDS {{ subckt_name }}